@<TRIPOS>MOLECULE
*****
 48 50 0 0 0
SMALL
GASTEIGER

@<TRIPOS>ATOM
      1 S          -2.5014   -1.4638   -2.1461 S.O2    1  UNL11      -0.0023
      2 C           1.8016   -7.7909   -0.1588 C.2     1  UNL11       0.3081
      3 N           0.6892   -7.0695   -0.5810 N.am    1  UNL11      -0.2682
      4 C          -3.4198   -1.0929   -0.6657 C.3     1  UNL11       0.0883
      5 C          -0.8276   -1.8211   -1.7038 C.3     1  UNL11       0.0801
      6 C           0.3175   -6.6752   -1.8933 C.3     1  UNL11       0.0482
      7 N           2.6705   -8.1845   -1.1396 N.am    1  UNL11      -0.2692
      8 O          -2.4659   -0.2332   -2.9175 O.2     1  UNL11      -0.1693
      9 O          -3.0882   -2.6512   -2.7381 O.2     1  UNL11      -0.1693
     10 O           1.9579   -7.9791    1.0491 O.2     1  UNL11      -0.2522
     11 C          -0.2459   -5.3982   -2.1174 C.3     1  UNL11       0.0292
     12 C          -3.5332    0.2388   -0.2350 C.3     1  UNL11      -0.0355
     13 C          -4.1919   -2.0924   -0.0628 C.3     1  UNL11      -0.0355
     14 S          -1.1997   -4.5906   -0.8214 S.3     1  UNL11      -0.1217
     15 C          -0.5495   -2.8897   -0.6643 C.3     1  UNL11       0.0181
     16 C          -5.1665   -0.4437    1.4143 C.3     1  UNL11       0.0411
     17 C           3.8869   -8.8807   -1.0759 C.3     1  UNL11       0.0348
     18 C          -5.0593   -1.7656    0.9834 C.3     1  UNL11      -0.0416
     19 C          -4.4059    0.5589    0.8126 C.3     1  UNL11      -0.0416
     20 CL         -6.2711   -0.0401    2.6706 Cl      1  UNL11      -0.0835
     21 C           0.5489   -7.5204   -2.9873 C.3     1  UNL11      -0.0394
     22 C          -0.2554   -4.9059   -3.4306 C.3     1  UNL11      -0.0465
     23 C           4.6092   -9.1073    0.0906 C.3     1  UNL11      -0.0404
     24 C           4.4089   -9.3234   -2.3051 C.3     1  UNL11      -0.0404
     25 C           0.5294   -7.0244   -4.2866 C.3     1  UNL11      -0.0599
     26 C           0.1953   -5.6927   -4.4982 C.3     1  UNL11      -0.0606
     27 C           5.8613   -9.7328    0.0191 C.3     1  UNL11      -0.0600
     28 C           5.6396   -9.9732   -2.3700 C.3     1  UNL11      -0.0600
     29 C           6.3738  -10.1647   -1.2037 C.3     1  UNL11      -0.0616
     30 H           0.2558   -6.5576    0.1807 H       1  UNL11       0.1564
     31 H          -0.4152   -0.8712   -1.3365 H       1  UNL11       0.0512
     32 H          -0.3010   -2.0345   -2.6350 H       1  UNL11       0.0512
     33 H           2.4692   -7.8481   -2.0614 H       1  UNL11       0.1564
     34 H          -2.9919    1.0383   -0.7348 H       1  UNL11       0.0637
     35 H          -4.1617   -3.1163   -0.4281 H       1  UNL11       0.0637
     36 H           0.5350   -2.9724   -0.5283 H       1  UNL11       0.0396
     37 H          -0.9442   -2.5342    0.2941 H       1  UNL11       0.0396
     38 H          -5.6743   -2.5414    1.4359 H       1  UNL11       0.0633
     39 H          -4.5137    1.5925    1.1302 H       1  UNL11       0.0633
     40 H           0.7597   -8.5784   -2.8376 H       1  UNL11       0.0636
     41 H          -0.6602   -3.9305   -3.6664 H       1  UNL11       0.0629
     42 H           4.2440   -8.7664    1.0550 H       1  UNL11       0.0636
     43 H           3.8497   -9.1833   -3.2259 H       1  UNL11       0.0636
     44 H           0.7740   -7.6748   -5.1213 H       1  UNL11       0.0618
     45 H           0.2057   -5.2916   -5.5063 H       1  UNL11       0.0618
     46 H           6.4429   -9.8736    0.9258 H       1  UNL11       0.0618
     47 H           6.0229  -10.3201   -3.3251 H       1  UNL11       0.0618
     48 H           7.3455  -10.6502   -1.2505 H       1  UNL11       0.0618
@<TRIPOS>BOND
     1     2     3   am
     2     3     6    1
     3     4     1    1
     4     5     1    1
     5     6    11   ar
     6     7     2   am
     7     8     1    2
     8     9     1    2
     9    10     2    2
    10    11    14    1
    11    12     4   ar
    12    13     4   ar
    13    14    15    1
    14    15     5    1
    15    16    18   ar
    16    17     7    1
    17    18    13   ar
    18    19    12   ar
    19    20    16    1
    20    21     6   ar
    21    22    11   ar
    22    23    17   ar
    23    24    17   ar
    24    25    26   ar
    25    26    22   ar
    26    27    23   ar
    27    28    24   ar
    28    29    28   ar
    29    19    16   ar
    30    21    25   ar
    31    27    29   ar
    32     3    30    1
    33     5    31    1
    34     5    32    1
    35     7    33    1
    36    12    34    1
    37    13    35    1
    38    15    36    1
    39    15    37    1
    40    18    38    1
    41    19    39    1
    42    21    40    1
    43    22    41    1
    44    23    42    1
    45    24    43    1
    46    25    44    1
    47    26    45    1
    48    27    46    1
    49    28    47    1
    50    29    48    1
