#

@<TRIPOS>MOLECULE
tmp2.pdb
 50 52 0 0 0
SMALL
GASTEIGER

@<TRIPOS>ATOM
      1 C          28.5750   75.2460    5.9150 C.ar      1 LIG         0.0316
      2 C1         29.4350   74.3690    6.6200 C.ar      1 LIG         0.0277
      3 C2         29.1120   76.1430    4.9620 C.ar      1 LIG        -0.0408
      4 C3         30.8190   74.4080    6.3440 C.ar      1 LIG        -0.0466
      5 C4         30.4840   76.1420    4.6740 C.ar      1 LIG        -0.0600
      6 C5         31.3380   75.2770    5.3730 C.ar      1 LIG        -0.0606
      7 S          28.8200   73.3750    7.9930 S.3       1 LIG        -0.1218
      8 C6         29.6030   71.6860    8.0250 C.3       1 LIG         0.0181
      9 C7         30.9110   71.5360    8.8340 C.3       1 LIG         0.0801
     10 S1         30.7510   71.2160   10.6160 S.O2      1 LIG        -0.0023
     11 O          32.0430   71.6630   11.1300 O.2       1 LIG        -0.1693
     12 O1         29.5050   71.8330   11.0550 O.2       1 LIG        -0.1693
     13 C8         30.6080   69.4610   10.9740 C.ar      1 LIG         0.0883
     14 C9         29.3340   68.8650   10.9960 C.ar      1 LIG        -0.0355
     15 C10        29.1910   67.5210   11.3800 C.ar      1 LIG        -0.0416
     16 C11        30.3240   66.7770   11.7520 C.ar      1 LIG         0.0411
     17 C12        31.5910   67.3840   11.7750 C.ar      1 LIG        -0.0416
     18 CL         30.1510   65.0960   12.2090 Cl        1 LIG        -0.0835
     19 C13        31.7320   68.7290   11.3930 C.ar      1 LIG        -0.0355
     20 N          27.1900   75.2810    6.2370 N.am      1 LIG        -0.3388
     21 C14        26.2330   74.4520    5.6250 C.2       1 LIG         0.2752
     22 O2         25.1170   74.4190    6.1340 O.2       1 LIG        -0.2555
     23 N1         26.7240   73.3160    4.9540 N.am      1 LIG        -0.3396
     24 H          27.7240   73.2840    4.8090 H         1 LIG         0.1324
     25 H1         26.9290   75.8010    7.0670 H         1 LIG         0.1324
     26 C15        25.9570   72.7020    3.9220 C.ar      1 LIG         0.0180
     27 C16        24.5500   72.6660    3.9930 C.ar      1 LIG        -0.0419
     28 C17        23.8040   72.0030    3.0050 C.ar      1 LIG        -0.0601
     29 C18        24.4620   71.3660    1.9370 C.ar      1 LIG        -0.0616
     30 C19        25.8680   71.3940    1.8600 C.ar      1 LIG        -0.0601
     31 C20        26.6100   72.0630    2.8500 C.ar      1 LIG        -0.0419
     32 H2         28.4650   76.8290    4.4560 H         1 LIG         0.0636
     33 H3         31.4820   73.7650    6.8840 H         1 LIG         0.0629
     34 H4         30.8770   76.7970    3.9250 H         1 LIG         0.0618
     35 H5         32.3880   75.2800    5.1650 H         1 LIG         0.0618
     36 H6         28.8880   71.0060    8.4380 H         1 LIG         0.0396
     37 H7         29.8790   71.4880    7.0100 H         1 LIG         0.0396
     38 H8         31.4610   70.7230    8.4090 H         1 LIG         0.0512
     39 H9         31.3890   72.4910    8.7660 H         1 LIG         0.0512
     40 H10        28.4720   69.4360   10.7200 H         1 LIG         0.0637
     41 H11        28.2230   67.0650   11.3890 H         1 LIG         0.0633
     42 H12        32.4480   66.8220   12.0830 H         1 LIG         0.0633
     43 H13        32.6950   69.1950   11.4210 H         1 LIG         0.0637
     44 H14        26.9970   75.8280    5.3860 H         1 LIG         0.1324
     45 H15        26.5260   72.6480    5.7130 H         1 LIG         0.1324
     46 H16        24.0470   73.1470    4.8050 H         1 LIG         0.0636
     47 H17        22.7360   71.9820    3.0640 H         1 LIG         0.0618
     48 H18        23.8950   70.8610    1.1840 H         1 LIG         0.0618
     49 H19        26.3700   70.9070    1.0500 H         1 LIG         0.0618
     50 H20        27.6780   72.0870    2.7880 H         1 LIG         0.0636
@<TRIPOS>BOND
     1   49   30 1  
     2   48   29 1  
     3   30   29 2  
     4   30   31 1  
     5   29   28 1  
     6   50   31 1  
     7   31   26 2  
     8   28   47 1  
     9   28   27 2  
    10   26   27 1  
    11   26   23 1  
    12   34    5 1  
    13   27   46 1  
    14   32    3 1  
    15    5    3 2  
    16    5    6 1  
    17   24   23 1  
    18   23   21 1  
    19   23   45 1  
    20    3    1 1  
    21   35    6 1  
    22    6    4 2  
    23   44   20 1  
    24   21   22 2  
    25   21   20 1  
    26    1   20 1  
    27    1    2 2  
    28   20   25 1  
    29    4    2 1  
    30    4   33 1  
    31    2    7 1  
    32   37    8 1  
    33    7    8 1  
    34    8   36 1  
    35    8    9 1  
    36   38    9 1  
    37   39    9 1  
    38    9   10 1  
    39   10   13 1  
    40   10   12 1  
    41   10   11 1  
    42   40   14 1  
    43   13   14 2  
    44   13   19 1  
    45   14   15 1  
    46   15   41 1  
    47   15   16 2  
    48   19   43 1  
    49   19   17 2  
    50   16   17 1  
    51   16   18 1  
    52   17   42 1  
