
 OpenBabel11232110573D

 33 36  0  0  0  0  0  0  0  0999 V2000
  -50.9380   -0.3740  -25.4420 C   0  0  0  0  0  0  0  0  0  0  0  0
  -49.8810   -0.6540  -24.5810 C   0  0  0  0  0  0  0  0  0  0  0  0
  -49.9220   -0.1240  -23.2890 C   0  0  0  0  0  3  0  0  0  0  0  0
  -51.0410    0.6180  -22.8260 C   0  0  0  0  0  0  0  0  0  0  0  0
  -52.1330    0.8080  -23.6820 C   0  0  0  0  0  0  0  0  0  0  0  0
  -52.0610    0.3160  -24.9770 C   0  0  0  0  0  3  0  0  0  0  0  0
  -53.2440    1.4450  -23.3140 N   0  0  0  0  0  0  0  0  0  0  0  0
  -53.2790    1.9170  -22.0650 C   0  0  0  0  0  3  0  0  0  0  0  0
  -52.3010    1.8140  -21.1620 N   0  0  0  0  0  0  0  0  0  0  0  0
  -51.1730    1.1880  -21.5420 C   0  0  0  0  0  0  0  0  0  0  0  0
  -50.0970    1.1050  -20.6290 N   0  0  0  0  0  0  0  0  0  0  0  0
  -49.2070    1.3010  -21.0700 H   0  0  0  0  0  0  0  0  0  0  0  0
  -50.0880    1.2550  -19.2290 C   0  0  0  0  0  0  0  0  0  0  0  0
  -49.0390    0.6820  -18.4890 C   0  0  0  0  0  3  0  0  0  0  0  0
  -48.9990    0.8000  -17.0960 C   0  0  0  0  0  0  0  0  0  0  0  0
  -50.0120    1.4770  -16.4270 C   0  0  0  0  0  0  0  0  0  0  0  0
  -51.0690    2.0340  -17.1360 C   0  0  0  0  0  3  0  0  0  0  0  0
  -51.1060    1.9180  -18.5290 C   0  0  0  0  0  3  0  0  0  0  0  0
  -49.9940    1.5980  -15.0920 F   0  0  0  0  0  0  0  0  0  0  0  0
  -47.6880    0.0970  -16.2290 Cl  0  0  0  0  0  0  0  0  0  0  0  0
  -51.3740    0.2800  -27.5940 C   0  0  0  0  0  1  0  0  0  0  0  0
  -50.9450   -0.7950  -26.7470 O   0  0  0  0  0  0  0  0  0  0  0  0
  -48.7610   -1.3880  -24.8560 O   0  0  0  0  0  0  0  0  0  0  0  0
  -47.9380   -1.8030  -23.7630 C   0  0  0  0  0  2  0  0  0  0  0  0
  -46.8470   -2.7820  -24.2020 C   0  0  0  0  0  2  0  0  0  0  0  0
  -47.2530   -4.2500  -24.1570 C   0  0  0  0  0  2  0  0  0  0  0  0
  -47.1370   -5.0100  -25.4580 N   0  0  0  0  0  4  0  0  0  0  0  0
  -45.9800   -4.5950  -26.3660 C   0  0  0  0  0  2  0  0  0  0  0  0
  -46.1360   -5.2870  -27.7270 C   0  0  0  0  0  2  0  0  0  0  0  0
  -46.1910   -6.7110  -27.5780 O   0  0  0  0  0  0  0  0  0  0  0  0
  -47.2890   -7.1280  -26.7600 C   0  0  0  0  0  2  0  0  0  0  0  0
  -47.1880   -6.5280  -25.3510 C   0  0  0  0  0  2  0  0  0  0  0  0
  -47.9880   -4.7550  -25.9760 H   0  0  0  0  0  0  0  0  0  0  0  0
  1  6  2  0  0  0  0
  1  2  1  0  0  0  0
  2  3  2  0  0  0  0
  3  4  1  0  0  0  0
  4 10  1  0  0  0  0
  5  7  1  0  0  0  0
  5  4  2  0  0  0  0
  6  5  1  0  0  0  0
  7  8  2  0  0  0  0
  8  9  1  0  0  0  0
 10  9  2  0  0  0  0
 10 11  1  0  0  0  0
 11 13  1  0  0  0  0
 12 11  1  0  0  0  0
 13 18  2  0  0  0  0
 13 14  1  0  0  0  0
 14 15  2  0  0  0  0
 15 16  1  0  0  0  0
 15 20  1  0  0  0  0
 16 19  1  0  0  0  0
 17 16  2  0  0  0  0
 18 17  1  0  0  0  0
 21 22  1  0  0  0  0
 22  1  1  0  0  0  0
 23  2  1  0  0  0  0
 23 24  1  0  0  0  0
 25 26  1  0  0  0  0
 25 24  1  0  0  0  0
 27 32  1  0  0  0  0
 27 26  1  0  0  0  0
 28 27  1  0  0  0  0
 29 30  1  0  0  0  0
 29 28  1  0  0  0  0
 30 31  1  0  0  0  0
 31 32  1  0  0  0  0
 33 27  1  0  0  0  0
M  END
>  <minimizedAffinity>
-7.66897964

$$$$
