
 OpenBabel11232110573D

 33 36  0  0  0  0  0  0  0  0999 V2000
  -51.6080    0.7980  -21.0170 C   0  0  0  0  0  0  0  0  0  0  0  0
  -50.5750   -0.0190  -20.5650 C   0  0  0  0  0  0  0  0  0  0  0  0
  -49.7450   -0.6220  -21.5150 C   0  0  0  0  0  3  0  0  0  0  0  0
  -49.8900   -0.3570  -22.9030 C   0  0  0  0  0  0  0  0  0  0  0  0
  -50.8780    0.5400  -23.3250 C   0  0  0  0  0  0  0  0  0  0  0  0
  -51.7250    1.0970  -22.3780 C   0  0  0  0  0  3  0  0  0  0  0  0
  -51.0510    0.8870  -24.6000 N   0  0  0  0  0  0  0  0  0  0  0  0
  -50.2270    0.3260  -25.4900 C   0  0  0  0  0  3  0  0  0  0  0  0
  -49.2590   -0.5510  -25.2160 N   0  0  0  0  0  0  0  0  0  0  0  0
  -49.1010   -0.9140  -23.9310 C   0  0  0  0  0  0  0  0  0  0  0  0
  -48.1190   -1.8800  -23.6100 N   0  0  0  0  0  0  0  0  0  0  0  0
  -48.4600   -2.5630  -22.9450 H   0  0  0  0  0  0  0  0  0  0  0  0
  -46.9990   -2.3080  -24.3480 C   0  0  0  0  0  0  0  0  0  0  0  0
  -47.0670   -3.5270  -25.0440 C   0  0  0  0  0  3  0  0  0  0  0  0
  -45.9730   -3.9930  -25.7800 C   0  0  0  0  0  0  0  0  0  0  0  0
  -44.7960   -3.2540  -25.8170 C   0  0  0  0  0  0  0  0  0  0  0  0
  -44.6990   -2.0560  -25.1210 C   0  0  0  0  0  3  0  0  0  0  0  0
  -45.7950   -1.5900  -24.3870 C   0  0  0  0  0  3  0  0  0  0  0  0
  -43.7340   -3.6840  -26.5130 F   0  0  0  0  0  0  0  0  0  0  0  0
  -46.1030   -5.4830  -26.6320 Cl  0  0  0  0  0  0  0  0  0  0  0  0
  -52.0000    2.6290  -19.6980 C   0  0  0  0  0  1  0  0  0  0  0  0
  -52.5100    1.3700  -20.1590 O   0  0  0  0  0  0  0  0  0  0  0  0
  -50.2740   -0.3340  -19.2700 O   0  0  0  0  0  0  0  0  0  0  0  0
  -49.2190    0.3850  -18.6250 C   0  0  0  0  0  2  0  0  0  0  0  0
  -48.2810   -0.5410  -17.8500 C   0  0  0  0  0  2  0  0  0  0  0  0
  -48.7560   -1.9850  -17.7410 C   0  0  0  0  0  2  0  0  0  0  0  0
  -48.3030   -2.9170  -18.8410 N   0  0  0  0  0  4  0  0  0  0  0  0
  -49.4160   -3.5520  -19.6720 C   0  0  0  0  0  2  0  0  0  0  0  0
  -48.8140   -4.6330  -20.5790 C   0  0  0  0  0  2  0  0  0  0  0  0
  -47.7880   -4.0890  -21.4190 O   0  0  0  0  0  0  0  0  0  0  0  0
  -46.7140   -3.5200  -20.6630 C   0  0  0  0  0  2  0  0  0  0  0  0
  -47.2140   -2.3820  -19.7620 C   0  0  0  0  0  2  0  0  0  0  0  0
  -47.8610   -3.7000  -18.3420 H   0  0  0  0  0  0  0  0  0  0  0  0
  1  2  1  0  0  0  0
  1 22  1  0  0  0  0
  2 23  1  0  0  0  0
  3  2  2  0  0  0  0
  4  3  1  0  0  0  0
  5  4  1  0  0  0  0
  5  6  1  0  0  0  0
  6  1  2  0  0  0  0
  7  5  2  0  0  0  0
  8  9  2  0  0  0  0
  8  7  1  0  0  0  0
  9 10  1  0  0  0  0
 10 11  1  0  0  0  0
 10  4  2  0  0  0  0
 11 12  1  0  0  0  0
 13 11  1  0  0  0  0
 14 13  2  0  0  0  0
 15 14  1  0  0  0  0
 16 15  2  0  0  0  0
 16 17  1  0  0  0  0
 17 18  2  0  0  0  0
 18 13  1  0  0  0  0
 19 16  1  0  0  0  0
 20 15  1  0  0  0  0
 22 21  1  0  0  0  0
 23 24  1  0  0  0  0
 24 25  1  0  0  0  0
 25 26  1  0  0  0  0
 27 33  1  0  0  0  0
 27 26  1  0  0  0  0
 28 27  1  0  0  0  0
 29 28  1  0  0  0  0
 30 31  1  0  0  0  0
 30 29  1  0  0  0  0
 31 32  1  0  0  0  0
 32 27  1  0  0  0  0
M  END
>  <minimizedAffinity>
-7.57787132

$$$$
