
 OpenBabel11232110573D

 33 36  0  0  0  0  0  0  0  0999 V2000
  -49.1240   -2.3890  -18.8020 C   0  0  0  0  0  0  0  0  0  0  0  0
  -49.3190   -1.6380  -19.9580 C   0  0  0  0  0  0  0  0  0  0  0  0
  -48.3800   -1.7530  -20.9870 C   0  0  0  0  0  3  0  0  0  0  0  0
  -47.2940   -2.6640  -20.9030 C   0  0  0  0  0  0  0  0  0  0  0  0
  -47.1720   -3.4750  -19.7680 C   0  0  0  0  0  0  0  0  0  0  0  0
  -48.0830   -3.3190  -18.7340 C   0  0  0  0  0  3  0  0  0  0  0  0
  -46.2160   -4.3930  -19.6270 N   0  0  0  0  0  0  0  0  0  0  0  0
  -45.3470   -4.5120  -20.6350 C   0  0  0  0  0  3  0  0  0  0  0  0
  -45.3480   -3.7920  -21.7590 N   0  0  0  0  0  0  0  0  0  0  0  0
  -46.3020   -2.8520  -21.8880 C   0  0  0  0  0  0  0  0  0  0  0  0
  -46.3030   -2.0350  -23.0420 N   0  0  0  0  0  0  0  0  0  0  0  0
  -46.4750   -1.0620  -22.8200 H   0  0  0  0  0  0  0  0  0  0  0  0
  -45.6860   -2.2360  -24.2910 C   0  0  0  0  0  0  0  0  0  0  0  0
  -46.1270   -3.2920  -25.1080 C   0  0  0  0  0  3  0  0  0  0  0  0
  -45.5320   -3.5310  -26.3510 C   0  0  0  0  0  0  0  0  0  0  0  0
  -44.4830   -2.7290  -26.7850 C   0  0  0  0  0  0  0  0  0  0  0  0
  -44.0180   -1.6910  -25.9870 C   0  0  0  0  0  3  0  0  0  0  0  0
  -44.6150   -1.4520  -24.7450 C   0  0  0  0  0  3  0  0  0  0  0  0
  -43.8980   -2.9440  -27.9710 F   0  0  0  0  0  0  0  0  0  0  0  0
  -46.1130   -4.8250  -27.3270 Cl  0  0  0  0  0  0  0  0  0  0  0  0
  -49.1900   -1.9200  -16.5610 C   0  0  0  0  0  1  0  0  0  0  0  0
  -49.9560   -2.2820  -17.7180 O   0  0  0  0  0  0  0  0  0  0  0  0
  -50.3320   -0.7580  -20.2140 O   0  0  0  0  0  0  0  0  0  0  0  0
  -50.1780    0.5970  -19.7830 C   0  0  0  0  0  2  0  0  0  0  0  0
  -50.7830    1.5900  -20.7760 C   0  0  0  0  0  2  0  0  0  0  0  0
  -51.5930    0.9550  -21.9000 C   0  0  0  0  0  2  0  0  0  0  0  0
  -50.8050    0.4820  -23.1000 N   0  0  0  0  0  4  0  0  0  0  0  0
  -51.0570   -0.9620  -23.5300 C   0  0  0  0  0  2  0  0  0  0  0  0
  -50.0270   -1.3560  -24.5980 C   0  0  0  0  0  2  0  0  0  0  0  0
  -50.0810   -0.4660  -25.7190 O   0  0  0  0  0  0  0  0  0  0  0  0
  -49.8120    0.8900  -25.3480 C   0  0  0  0  0  2  0  0  0  0  0  0
  -50.8330    1.3940  -24.3180 C   0  0  0  0  0  2  0  0  0  0  0  0
  -49.8270    0.5000  -22.7820 H   0  0  0  0  0  0  0  0  0  0  0  0
  1  6  1  0  0  0  0
  1 22  1  0  0  0  0
  2  1  2  0  0  0  0
  3  4  2  0  0  0  0
  3  2  1  0  0  0  0
  4  5  1  0  0  0  0
  5  7  1  0  0  0  0
  5  6  2  0  0  0  0
  8  7  2  0  0  0  0
  9  8  1  0  0  0  0
 10  9  2  0  0  0  0
 10  4  1  0  0  0  0
 11 12  1  0  0  0  0
 11 10  1  0  0  0  0
 13 11  1  0  0  0  0
 14 13  2  0  0  0  0
 15 14  1  0  0  0  0
 16 15  2  0  0  0  0
 16 17  1  0  0  0  0
 17 18  2  0  0  0  0
 18 13  1  0  0  0  0
 19 16  1  0  0  0  0
 20 15  1  0  0  0  0
 22 21  1  0  0  0  0
 23  2  1  0  0  0  0
 23 24  1  0  0  0  0
 25 24  1  0  0  0  0
 26 25  1  0  0  0  0
 27 33  1  0  0  0  0
 27 26  1  0  0  0  0
 28 27  1  0  0  0  0
 29 28  1  0  0  0  0
 30 31  1  0  0  0  0
 30 29  1  0  0  0  0
 31 32  1  0  0  0  0
 32 27  1  0  0  0  0
M  END
>  <minimizedAffinity>
-7.52108192

$$$$
