
 OpenBabel11232110573D

 33 36  0  0  0  0  0  0  0  0999 V2000
  -50.8680   -0.2330  -25.3500 C   0  0  0  0  0  0  0  0  0  0  0  0
  -49.8070   -0.5040  -24.4890 C   0  0  0  0  0  0  0  0  0  0  0  0
  -49.8660    0.0010  -23.1880 C   0  0  0  0  0  3  0  0  0  0  0  0
  -51.0040    0.7080  -22.7160 C   0  0  0  0  0  0  0  0  0  0  0  0
  -52.0970    0.8870  -23.5730 C   0  0  0  0  0  0  0  0  0  0  0  0
  -52.0090    0.4210  -24.8760 C   0  0  0  0  0  3  0  0  0  0  0  0
  -53.2250    1.4910  -23.1990 N   0  0  0  0  0  0  0  0  0  0  0  0
  -53.2760    1.9390  -21.9410 C   0  0  0  0  0  3  0  0  0  0  0  0
  -52.3000    1.8420  -21.0360 N   0  0  0  0  0  0  0  0  0  0  0  0
  -51.1560    1.2500  -21.4230 C   0  0  0  0  0  0  0  0  0  0  0  0
  -50.0810    1.1770  -20.5060 N   0  0  0  0  0  0  0  0  0  0  0  0
  -49.1940    1.4020  -20.9400 H   0  0  0  0  0  0  0  0  0  0  0  0
  -50.0810    1.3010  -19.1040 C   0  0  0  0  0  0  0  0  0  0  0  0
  -49.0300    0.7260  -18.3690 C   0  0  0  0  0  3  0  0  0  0  0  0
  -48.9990    0.8180  -16.9740 C   0  0  0  0  0  0  0  0  0  0  0  0
  -50.0230    1.4720  -16.2980 C   0  0  0  0  0  0  0  0  0  0  0  0
  -51.0820    2.0310  -17.0020 C   0  0  0  0  0  3  0  0  0  0  0  0
  -51.1100    1.9400  -18.3970 C   0  0  0  0  0  3  0  0  0  0  0  0
  -50.0140    1.5680  -14.9610 F   0  0  0  0  0  0  0  0  0  0  0  0
  -47.6850    0.1140  -16.1120 Cl  0  0  0  0  0  0  0  0  0  0  0  0
  -51.3630    0.4300  -27.4850 C   0  0  0  0  0  1  0  0  0  0  0  0
  -50.8590   -0.6300  -26.6620 O   0  0  0  0  0  0  0  0  0  0  0  0
  -48.6690   -1.2050  -24.7720 O   0  0  0  0  0  0  0  0  0  0  0  0
  -48.3210   -2.3040  -23.9250 C   0  0  0  0  0  2  0  0  0  0  0  0
  -46.9160   -2.1570  -23.3390 C   0  0  0  0  0  2  0  0  0  0  0  0
  -45.9590   -3.2910  -23.6870 C   0  0  0  0  0  2  0  0  0  0  0  0
  -45.2140   -3.1520  -24.9950 N   0  0  0  0  0  4  0  0  0  0  0  0
  -45.8740   -3.8090  -26.2060 C   0  0  0  0  0  2  0  0  0  0  0  0
  -44.8970   -3.7810  -27.3890 C   0  0  0  0  0  2  0  0  0  0  0  0
  -44.4870   -2.4410  -27.6880 O   0  0  0  0  0  0  0  0  0  0  0  0
  -43.8320   -1.8150  -26.5790 C   0  0  0  0  0  2  0  0  0  0  0  0
  -44.7590   -1.7450  -25.3570 C   0  0  0  0  0  2  0  0  0  0  0  0
  -44.3430   -3.6780  -24.8460 H   0  0  0  0  0  0  0  0  0  0  0  0
  1  6  2  0  0  0  0
  1  2  1  0  0  0  0
  2  3  2  0  0  0  0
  3  4  1  0  0  0  0
  4 10  1  0  0  0  0
  5  7  1  0  0  0  0
  5  4  2  0  0  0  0
  6  5  1  0  0  0  0
  7  8  2  0  0  0  0
  8  9  1  0  0  0  0
 10  9  2  0  0  0  0
 10 11  1  0  0  0  0
 11 13  1  0  0  0  0
 12 11  1  0  0  0  0
 13 18  2  0  0  0  0
 13 14  1  0  0  0  0
 14 15  2  0  0  0  0
 15 16  1  0  0  0  0
 15 20  1  0  0  0  0
 16 19  1  0  0  0  0
 17 16  2  0  0  0  0
 18 17  1  0  0  0  0
 21 22  1  0  0  0  0
 22  1  1  0  0  0  0
 23  2  1  0  0  0  0
 23 24  1  0  0  0  0
 24 25  1  0  0  0  0
 26 25  1  0  0  0  0
 27 33  1  0  0  0  0
 27 26  1  0  0  0  0
 28 27  1  0  0  0  0
 29 28  1  0  0  0  0
 30 29  1  0  0  0  0
 30 31  1  0  0  0  0
 31 32  1  0  0  0  0
 32 27  1  0  0  0  0
M  END
>  <minimizedAffinity>
-7.71431637

$$$$
