REMARK  Name = 
REMARK  8 active torsions:
REMARK  status: ('A' for Active; 'I' for Inactive)
REMARK    1  A    between atoms: C_1  and  O_2
REMARK    2  A    between atoms: O_2  and  C_3
REMARK    3  A    between atoms: C_4  and  O_22
REMARK    4  A    between atoms: N_13  and  C_14
REMARK    5  A    between atoms: O_22  and  C_23
REMARK    6  A    between atoms: C_23  and  C_24
REMARK    7  A    between atoms: C_24  and  C_25
REMARK    8  A    between atoms: C_25  and  N_26
REMARK                            x       y       z     vdW  Elec       q    Type
REMARK                         _______ _______ _______ _____ _____    ______ ____
ROOT
ATOM      1  C   UNL     1       2.628  -1.006   2.823  0.00  0.00    +0.164 A 
ATOM      2  C   UNL     1       2.568  -2.078   1.937  0.00  0.00    +0.163 A 
ATOM      3  C   UNL     1       2.629  -3.373   2.469  0.00  0.00    +0.062 A 
ATOM      4  C   UNL     1       2.671  -3.614   3.868  0.00  0.00    +0.044 A 
ATOM      5  C   UNL     1       2.671  -2.519   4.739  0.00  0.00    +0.080 A 
ATOM      6  C   UNL     1       2.649  -1.240   4.205  0.00  0.00    +0.078 A 
ATOM      7  N   UNL     1       2.693  -2.644   6.066  0.00  0.00    -0.235 NA
ATOM      8  C   UNL     1       2.743  -3.889   6.550  0.00  0.00    +0.223 A 
ATOM      9  N   UNL     1       2.755  -5.009   5.825  0.00  0.00    -0.220 NA
ATOM     10  C   UNL     1       2.711  -4.881   4.487  0.00  0.00    +0.134 A 
ATOM     11  N   UNL     1       2.717  -6.049   3.693  0.00  0.00    -0.299 N 
ATOM     12  H   UNL     1       2.074  -6.003   2.916  0.00  0.00    +0.154 HD
ENDROOT
BRANCH  11  13
ATOM     13  C   UNL     1       3.150  -7.354   4.001  0.00  0.00    +0.034 A 
ATOM     14  C   UNL     1       4.031  -7.637   5.055  0.00  0.00    +0.046 A 
ATOM     15  C   UNL     1       4.445  -8.947   5.312  0.00  0.00    +0.078 A 
ATOM     16  C   UNL     1       3.992  -9.988   4.509  0.00  0.00    +0.142 A 
ATOM     17  C   UNL     1       3.134  -9.732   3.447  0.00  0.00    +0.041 A 
ATOM     18  C   UNL     1       2.721  -8.421   3.192  0.00  0.00    +0.026 A 
ATOM     19  F   UNL     1       4.377 -11.251   4.737  0.00  0.00    -0.204 F 
ATOM     20 CL   UNL     1       5.523  -9.253   6.620  0.00  0.00    -0.081 Cl
ENDBRANCH  11  13
BRANCH   1  22
ATOM     21  C   UNL     1       3.867   0.928   2.627  0.00  0.00    +0.277 C 
ATOM     22  O   UNL     1       2.602   0.293   2.391  0.00  0.00    -0.491 OA
ENDBRANCH   1  22
BRANCH   2  23
ATOM     23  O   UNL     1       2.464  -2.074   0.580  0.00  0.00    -0.488 OA
BRANCH  23  24
ATOM     24  C   UNL     1       2.021  -0.943  -0.160  0.00  0.00    +0.234 C 
BRANCH  24  25
ATOM     25  C   UNL     1       0.523  -1.033  -0.461  0.00  0.00    +0.092 C 
BRANCH  25  26
ATOM     26  C   UNL     1      -0.387  -0.851   0.753  0.00  0.00    +0.134 C 
BRANCH  26  27
ATOM     27  N   UNL     1      -1.071   0.503   0.747  0.00  0.00    +0.239 N 
ATOM     28  C   UNL     1      -2.202   0.547   1.782  0.00  0.00    +0.160 C 
ATOM     29  C   UNL     1      -2.893   1.914   1.732  0.00  0.00    +0.210 C 
ATOM     30  O   UNL     1      -1.958   2.972   1.960  0.00  0.00    -0.369 OA
ATOM     31  C   UNL     1      -0.919   2.987   0.976  0.00  0.00    +0.210 C 
ATOM     32  C   UNL     1      -0.125   1.675   0.997  0.00  0.00    +0.160 C 
ATOM     33  H   UNL     1      -1.506   0.636  -0.175  0.00  0.00    +0.203 HD
ENDBRANCH  26  27
ENDBRANCH  25  26
ENDBRANCH  24  25
ENDBRANCH  23  24
ENDBRANCH   2  23
TORSDOF 7
