@<TRIPOS>MOLECULE
*****
 50 52 0 0 0
SMALL
GASTEIGER

@<TRIPOS>ATOM
      1 C          28.5750   75.2460    5.9150 C.ar    1  UNL1        0.0437
      2 C          29.4350   74.3690    6.6200 C.ar    1  UNL1        0.0302
      3 C          29.1120   76.1430    4.9620 C.ar    1  UNL1       -0.0383
      4 C          30.8190   74.4080    6.3440 C.ar    1  UNL1       -0.0464
      5 C          30.4840   76.1420    4.6740 C.ar    1  UNL1       -0.0598
      6 C          31.3380   75.2770    5.3730 C.ar    1  UNL1       -0.0606
      7 S          28.8200   73.3750    7.9930 S.3     1  UNL1       -0.1216
      8 C          29.6030   71.6860    8.0250 C.3     1  UNL1        0.0181
      9 C          30.9110   71.5360    8.8340 C.3     1  UNL1        0.0801
     10 S          30.7510   71.2160   10.6160 S.O2    1  UNL1       -0.0023
     11 O          32.0430   71.6630   11.1300 O.2     1  UNL1       -0.1693
     12 O          29.5050   71.8330   11.0550 O.2     1  UNL1       -0.1693
     13 C          30.6080   69.4610   10.9740 C.ar    1  UNL1        0.0883
     14 C          29.3340   68.8650   10.9960 C.ar    1  UNL1       -0.0355
     15 C          29.1910   67.5210   11.3800 C.ar    1  UNL1       -0.0416
     16 C          30.3240   66.7770   11.7520 C.ar    1  UNL1        0.0411
     17 C          31.5910   67.3840   11.7750 C.ar    1  UNL1       -0.0416
     18 CL         30.1510   65.0960   12.2090 Cl      1  UNL1       -0.0835
     19 C          31.7320   68.7290   11.3930 C.ar    1  UNL1       -0.0355
     20 N          27.1900   75.2810    6.2370 N.2     1  UNL1       -0.3615
     21 C          26.2330   74.4520    5.6250 C.1     1  UNL1        0.1635
     22 O          25.1170   74.4190    6.1340 O.2     1  UNL1       -0.2089
     23 N          26.7240   73.3160    4.9540 N.2     1  UNL1       -0.3624
     24 H          27.7240   73.2840    4.8090 H       1  UNL1        0.1511
     25 H          26.9290   75.8010    7.0670 H       1  UNL1        0.1512
     26 C          25.9570   72.7020    3.9220 C.ar    1  UNL1        0.0301
     27 C          24.5500   72.6660    3.9930 C.ar    1  UNL1       -0.0394
     28 C          23.8040   72.0030    3.0050 C.ar    1  UNL1       -0.0599
     29 C          24.4620   71.3660    1.9370 C.ar    1  UNL1       -0.0616
     30 C          25.8680   71.3940    1.8600 C.ar    1  UNL1       -0.0599
     31 C          26.6100   72.0630    2.8500 C.ar    1  UNL1       -0.0394
     32 H          28.4649   76.8287    4.4562 H       1  UNL1        0.0638
     33 H          31.4822   73.7648    6.8838 H       1  UNL1        0.0629
     34 H          30.8772   76.7974    3.9252 H       1  UNL1        0.0618
     35 H          32.3876   75.2799    5.1653 H       1  UNL1        0.0618
     36 H          28.8877   71.0061    8.4384 H       1  UNL1        0.0396
     37 H          29.8787   71.4876    7.0104 H       1  UNL1        0.0396
     38 H          31.4614   70.7229    8.4088 H       1  UNL1        0.0512
     39 H          31.3891   72.4908    8.7663 H       1  UNL1        0.0512
     40 H          28.4723   69.4361   10.7198 H       1  UNL1        0.0637
     41 H          28.2229   67.0654   11.3892 H       1  UNL1        0.0633
     42 H          32.4481   66.8224   12.0832 H       1  UNL1        0.0633
     43 H          32.6946   69.1954   11.4212 H       1  UNL1        0.0637
     44 H          26.9967   75.8280    5.3859 H       1  UNL1        0.1512
     45 H          26.5260   72.6480    5.7126 H       1  UNL1        0.1511
     46 H          24.0466   73.1472    4.8054 H       1  UNL1        0.0638
     47 H          22.7359   71.9823    3.0644 H       1  UNL1        0.0618
     48 H          23.8946   70.8606    1.1837 H       1  UNL1        0.0618
     49 H          26.3705   70.9075    1.0503 H       1  UNL1        0.0618
     50 H          27.6780   72.0867    2.7884 H       1  UNL1        0.0638
@<TRIPOS>BOND
     1     1     2   ar
     2     1     3   ar
     3     1    20    1
     4     2     4   ar
     5     2     7    1
     6     3     5   ar
     7     4     6   ar
     8     5     6   ar
     9     7     8    1
    10     8     9    1
    11     9    10    1
    12    10    11    2
    13    10    12    2
    14    10    13    1
    15    13    14   ar
    16    13    19   ar
    17    14    15   ar
    18    15    16   ar
    19    16    17   ar
    20    16    18    1
    21    17    19   ar
    22    20    21    2
    23    20    25    1
    24    21    22    2
    25    21    23    2
    26    23    24    1
    27    23    26    1
    28    26    27   ar
    29    26    31   ar
    30    27    28   ar
    31    28    29   ar
    32    29    30   ar
    33    30    31   ar
    34     3    32    1
    35     4    33    1
    36     5    34    1
    37     6    35    1
    38     8    36    1
    39     8    37    1
    40     9    38    1
    41     9    39    1
    42    14    40    1
    43    15    41    1
    44    17    42    1
    45    19    43    1
    46    20    44    1
    47    23    45    1
    48    27    46    1
    49    28    47    1
    50    29    48    1
    51    30    49    1
    52    31    50    1
