@<TRIPOS>MOLECULE
Docked ligand_Maybridge_HitDiscoverCmpd10003_reduced.mol2
31 33 1 0 0
SMALL
NO_CHARGES


@<TRIPOS>ATOM
      1 C          28.5750   75.2460    5.9150 C.ar      1 ***    0.0530
      2 C          29.4350   74.3690    6.6200 C.ar      1 ***    0.0270
      3 C          29.1120   76.1430    4.9620 C.ar      1 ***    0.0310
      4 C          30.8190   74.4080    6.3440 C.ar      1 ***    0.0210
      5 C          30.4840   76.1420    4.6740 C.ar      1 ***    0.0020
      6 C          31.3380   75.2770    5.3730 C.ar      1 ***    0.0020
      7 S          28.8200   73.3750    7.9930 S.3       1 ***   -0.1270
      8 C          29.6030   71.6860    8.0250 C.3       1 ***    0.0950
      9 C          30.9110   71.5360    8.8340 C.3       1 ***    0.1560
     10 S          30.7510   71.2160   10.6160 S.o2      1 ***    0.1760
     11 O          32.0430   71.6630   11.1300 O.2       1 ***   -0.2230
     12 O          29.5050   71.8330   11.0550 O.2       1 ***   -0.2230
     13 C          30.6080   69.4610   10.9740 C.ar      1 ***    0.0590
     14 C          29.3340   68.8650   10.9960 C.ar      1 ***    0.0250
     15 C          29.1910   67.5210   11.3800 C.ar      1 ***    0.0250
     16 C          30.3240   66.7770   11.7520 C.ar      1 ***    0.0340
     17 C          31.5910   67.3840   11.7750 C.ar      1 ***    0.0250
     18 CL         30.1510   65.0960   12.2090 Cl        1 ***   -0.0840
     19 C          31.7320   68.7290   11.3930 C.ar      1 ***    0.0250
     20 N          27.1900   75.2810    6.2370 N.pl3     1 ***   -0.3070
     21 C          26.2330   74.4520    5.6250 C.2       1 ***    0.3250
     22 O          25.1170   74.4190    6.1340 O.2       1 ***   -0.2470
     23 N          26.7240   73.3160    4.9540 N.pl3     1 ***   -0.3090
     24 H          27.7240   73.2840    4.8090 H         1 ***    0.1700
     25 H          26.9290   75.8010    7.0670 H         1 ***    0.1700
     26 C          25.9570   72.7020    3.9220 C.ar      1 ***    0.0360
     27 C          24.5500   72.6660    3.9930 C.ar      1 ***    0.0290
     28 C          23.8040   72.0030    3.0050 C.ar      1 ***    0.0020
     29 C          24.4620   71.3660    1.9370 C.ar      1 ***    0.0000
     30 C          25.8680   71.3940    1.8600 C.ar      1 ***    0.0020
     31 C          26.6100   72.0630    2.8500 C.ar      1 ***    0.0290
@<TRIPOS>BOND
     1    1    2 ar
     2    1    3 ar
     3    1   20 1
     4    2    4 ar
     5    2    7 1
     6    3    5 ar
     7    4    6 ar
     8    5    6 ar
     9    7    8 1
    10    8    9 1
    11    9   10 1
    12   10   11 2
    13   10   12 2
    14   10   13 1
    15   13   14 ar
    16   13   19 ar
    17   14   15 ar
    18   15   16 ar
    19   16   17 ar
    20   16   18 1
    21   17   19 ar
    22   20   21 2
    23   20   25 1
    24   21   22 2
    25   21   23 2
    26   23   24 1
    27   23   26 1
    28   26   27 ar
    29   26   31 ar
    30   27   28 ar
    31   28   29 ar
    32   29   30 ar
    33   30   31 ar
@<TRIPOS>SUBSTRUCTURE
     1 ***     1 RESIDUE           4 A     ***     0 ROOT
